MODEL 1
REMARK VINA RESULT:   -14.475      0.000      0.000
REMARK ITER + INTRA:          -19.044
REMARK INTER:                 -18.636
REMARK INTRA:                  -0.407
REMARK UNBOUND:                 0.509
REMARK  6 active torsions:
REMARK  status: ('A' for Active; 'I' for Inactive)
REMARK    1  A    between atoms: C5_5  and  C7_7 
REMARK       I    between atoms: C9_9  and  N13_13 
REMARK    2  A    between atoms: N13_13  and  C14_14 
REMARK    3  A    between atoms: C16_16  and  N21_21 
REMARK       I    between atoms: N21_21  and  C22_22 
REMARK    4  A    between atoms: C22_22  and  C23_23 
REMARK    5  A    between atoms: C27_26  and  C46_30 
REMARK    6  A    between atoms: C46_30  and  N48_31 
ROOT
HETATM    1  C14 STI A 201      15.780  54.687  12.482  1.00 32.92     0.057 A 
HETATM    2  C15 STI A 201      15.739  53.844  13.622  1.00 29.33     0.060 A 
HETATM    3  C16 STI A 201      16.739  52.809  13.828  1.00 30.34     0.037 A 
HETATM    4  C17 STI A 201      17.771  52.663  12.855  1.00 25.91     0.030 A 
HETATM    5  C18 STI A 201      17.827  53.510  11.690  1.00 26.77     0.011 A 
HETATM    6  C19 STI A 201      16.841  54.531  11.480  1.00 28.09    -0.035 A 
HETATM    7  C20 STI A 201      16.948  55.408  10.210  1.00 26.25     0.050 C 
ENDROOT
BRANCH   3   8
HETATM    8  N21 STI A 201      16.743  51.917  14.961  1.00 31.22    -0.323 N 
HETATM    9  C22 STI A 201      15.703  51.647  15.836  1.00 33.27     0.256 C 
HETATM   10  O29 STI A 201      14.671  52.297  15.903  1.00 38.89    -0.267 OA
HETATM   11  H13 STI A 201      17.610  51.430  15.140  1.00 31.22     0.169 HD
BRANCH   9  12
HETATM   12  C23 STI A 201      15.836  50.498  16.783  1.00 31.14     0.032 A 
HETATM   13  C25 STI A 201      17.120  49.819  16.977  1.00 34.22     0.017 A 
HETATM   14  C26 STI A 201      17.217  48.703  17.884  1.00 31.64     0.010 A 
HETATM   15  C27 STI A 201      16.026  48.259  18.604  1.00 38.05    -0.030 A 
HETATM   16  C28 STI A 201      14.767  48.955  18.396  1.00 29.43     0.010 A 
HETATM   17  C29 STI A 201      14.667  50.049  17.508  1.00 34.20     0.017 A 
BRANCH  15  18
HETATM   18  C46 STI A 201      16.034  47.064  19.575  1.00 35.44     0.311 C 
BRANCH  18  19
HETATM   19  N48 STI A 201      17.309  46.779  20.299  1.00 46.28     0.095 N 
HETATM   20  C49 STI A 201      17.302  45.395  20.952  1.00 44.33     0.300 C 
HETATM   21  C50 STI A 201      18.652  45.104  21.686  1.00 45.31     0.264 C 
HETATM   22  N51 STI A 201      18.908  46.194  22.728  1.00 48.74    -0.072 N 
HETATM   23  C52 STI A 201      18.914  47.575  22.087  1.00 46.67     0.264 C 
HETATM   24  C54 STI A 201      20.148  45.894  23.459  1.00 49.83     0.269 C 
HETATM   25  H32 STI A 201      18.154  46.207  23.400  1.00 48.74     0.279 HD
HETATM   26  C53 STI A 201      17.580  47.842  21.336  1.00 45.06     0.300 C 
ENDBRANCH  18  19
ENDBRANCH  15  18
ENDBRANCH   9  12
ENDBRANCH   3   8
BRANCH   1  27
HETATM   27  N13 STI A 201      14.793  55.665  12.334  1.00 32.90    -0.188 N 
HETATM   28  C9  STI A 201      15.054  56.989  12.653  1.00 33.83     0.727 A 
HETATM   29  N8  STI A 201      14.067  57.891  12.471  1.00 33.44    -0.062 NA
HETATM   30  N10 STI A 201      16.283  57.398  13.138  1.00 32.08    -0.075 NA
HETATM   31  C7  STI A 201      14.245  59.227  12.753  1.00 33.05     0.089 A 
HETATM   32  C12 STI A 201      15.507  59.686  13.259  1.00 30.85     0.053 A 
HETATM   33  C11 STI A 201      16.522  58.721  13.440  1.00 35.42     0.139 A 
HETATM   34  H08 STI A 201      13.880  55.404  11.991  1.00 32.90     0.184 HD
BRANCH  31  35
HETATM   35  C5  STI A 201      13.074  60.127  12.504  1.00 33.74     0.011 A 
HETATM   36  C4  STI A 201      11.996  59.659  11.645  1.00 31.40     0.130 A 
HETATM   37  N3  STI A 201      10.899  60.479  11.401  1.00 33.76    -0.272 NA
HETATM   38  C2  STI A 201      10.779  61.763  11.954  1.00 35.46     0.116 A 
HETATM   39  C1  STI A 201      11.811  62.288  12.810  1.00 35.17     0.020 A 
HETATM   40  C6  STI A 201      12.961  61.459  13.083  1.00 32.96     0.017 A 
ENDBRANCH  31  35
ENDBRANCH   1  27
TORSDOF 6
ENDMDL
